/*--------------------------------*- C++ -*----------------------------------*\
 | =========                 |                                                 |
 | \\      /  F ield         | OpenFOAM: The Open Source CFD Toolbox           |
 |  \\    /   O peration     | Version:  2.3.1                                 |
 |   \\  /    A nd           | Web:      www.OpenFOAM.org                      |
 |    \\/     M anipulation  |                                                 |
 \*---------------------------------------------------------------------------*/
 FoamFile
 {
     version     2.0;
     format      ascii;
     class       dictionary;
     object      blockMeshDict;
 }
 // * * * * * * * * * * * * * * * * * * * * * * * * * * * * * * * * * * * * * //
 
 convertToMeters 0.1;
 
 vertices
 (
        (-0.5  2.   0. )
	(-0.5  1.9  0. )
	(-0.5  1.7  0. )
	(-0.5  1.3  0. )
	(-0.5  1.1  0. )
	(-0.5  1.   0. )
	(-0.5  2.   0.1)
	(-0.5  1.9  0.1)
	(-0.5  1.7  0.1)
	(-0.5  1.3  0.1)
	(-0.5  1.1  0.1)
	(-0.5  1.   0.1)
	(-0.4  2.   0. )
	(-0.4  1.9  0. )
	(-0.4  1.7  0. )
	(-0.4  1.3  0. )
	(-0.4  1.1  0. )
	(-0.4  1.   0. )
	(-0.4  2.   0.1)
	(-0.4  1.9  0.1)
	(-0.4  1.7  0.1)
	(-0.4  1.3  0.1)
	(-0.4  1.1  0.1)
	(-0.4  1.   0.1)
	(-0.3  2.   0. )
	(-0.3  1.9  0. )
	(-0.3  1.7  0. )
	(-0.3  1.3  0. )
	(-0.3  1.1  0. )
	(-0.3  1.   0. )
	(-0.3  2.   0.1)
	(-0.3  1.9  0.1)
	(-0.3  1.7  0.1)
	(-0.3  1.3  0.1)
	(-0.3  1.1  0.1)
	(-0.3  1.   0.1)
	(-0.2  2.   0. )
	(-0.2  1.9  0. )
	(-0.2  1.7  0. )
	(-0.2  1.3  0. )
	(-0.2  1.1  0. )
	(-0.2  1.   0. )
	(-0.2  2.   0.1)
	(-0.2  1.9  0.1)
	(-0.2  1.7  0.1)
	(-0.2  1.3  0.1)
	(-0.2  1.1  0.1)
	(-0.2  1.   0.1)
	(-0.1  2.   0. )
	(-0.1  1.9  0. )
	(-0.1  1.7  0. )
	(-0.1  1.3  0. )
	(-0.1  1.1  0. )
	(-0.1  1.   0. )
	(-0.1  2.   0.1)
	(-0.1  1.9  0.1)
	(-0.1  1.7  0.1)
	(-0.1  1.3  0.1)
	(-0.1  1.1  0.1)
	(-0.1  1.   0.1)
	(  1.22464680e-16   2.00000000e+00   0.00000000e+00)
	(  1.16341446e-16   1.90000000e+00   0.00000000e+00)
	(  1.04094978e-16   1.70000000e+00   0.00000000e+00)
	(  7.96020419e-17   1.30000000e+00   0.00000000e+00)
	(  6.73555740e-17   1.10000000e+00   0.00000000e+00)
	(  6.12323400e-17   1.00000000e+00   0.00000000e+00)
	(  1.22464680e-16   2.00000000e+00   1.00000000e-01)
	(  1.16341446e-16   1.90000000e+00   1.00000000e-01)
	(  1.04094978e-16   1.70000000e+00   1.00000000e-01)
	(  7.96020419e-17   1.30000000e+00   1.00000000e-01)
	(  6.73555740e-17   1.10000000e+00   1.00000000e-01)
	(  6.12323400e-17   1.00000000e+00   1.00000000e-01)
	( 0.16093314  1.99351462  0.        )
	( 0.15288648  1.89383889  0.        )
	( 0.13679317  1.69448742  0.        )
	( 0.10460654  1.2957845   0.        )
	( 0.08851323  1.09643304  0.        )
	( 0.08046657  0.99675731  0.        )
	( 0.16093314  1.99351462  0.1       )
	( 0.15288648  1.89383889  0.1       )
	( 0.13679317  1.69448742  0.1       )
	( 0.10460654  1.2957845   0.1       )
	( 0.08851323  1.09643304  0.1       )
	( 0.08046657  0.99675731  0.1       )
	( 0.32082256  1.97410053  0.        )
	( 0.30478143  1.8753955   0.        )
	( 0.27269918  1.67798545  0.        )
	( 0.20853467  1.28316534  0.        )
	( 0.17645241  1.08575529  0.        )
	( 0.16041128  0.98705026  0.        )
	( 0.32082256  1.97410053  0.1       )
	( 0.30478143  1.8753955   0.1       )
	( 0.27269918  1.67798545  0.1       )
	( 0.20853467  1.28316534  0.1       )
	( 0.17645241  1.08575529  0.1       )
	( 0.16041128  0.98705026  0.1       )
	( 0.47863133  1.94188363  0.        )
	( 0.45469976  1.84478945  0.        )
	( 0.40683663  1.65060109  0.        )
	( 0.31111036  1.26222436  0.        )
	( 0.26324723  1.068036    0.        )
	( 0.23931566  0.97094182  0.        )
	( 0.47863133  1.94188363  0.1       )
	( 0.45469976  1.84478945  0.1       )
	( 0.40683663  1.65060109  0.1       )
	( 0.31111036  1.26222436  0.1       )
	( 0.26324723  1.068036    0.1       )
	( 0.23931566  0.97094182  0.1       )
	( 0.63333599  1.89707288  0.        )
	( 0.60166919  1.80221924  0.        )
	( 0.53833559  1.61251195  0.        )
	( 0.41166839  1.23309737  0.        )
	( 0.34833479  1.04339009  0.        )
	( 0.31666799  0.94853644  0.        )
	( 0.63333599  1.89707288  0.1       )
	( 0.60166919  1.80221924  0.1       )
	( 0.53833559  1.61251195  0.1       )
	( 0.41166839  1.23309737  0.1       )
	( 0.34833479  1.04339009  0.1       )
	( 0.31666799  0.94853644  0.1       )
	( 0.78393322  1.83995889  0.        )
	( 0.74473656  1.74796094  0.        )
	( 0.66634324  1.56396505  0.        )
	( 0.50955659  1.19597328  0.        )
	( 0.43116327  1.01197739  0.        )
	( 0.39196661  0.91997944  0.        )
	( 0.78393322  1.83995889  0.1       )
	( 0.74473656  1.74796094  0.1       )
	( 0.66634324  1.56396505  0.1       )
	( 0.50955659  1.19597328  0.1       )
	( 0.43116327  1.01197739  0.1       )
	( 0.39196661  0.91997944  0.1       )
	( 0.92944634  1.77091205  0.        )
	( 0.88297403  1.68236645  0.        )
	( 0.79002939  1.50527524  0.        )
	( 0.60414012  1.15109283  0.        )
	( 0.51119549  0.97400163  0.        )
	( 0.46472317  0.88545603  0.        )
	( 0.92944634  1.77091205  0.1       )
	( 0.88297403  1.68236645  0.1       )
	( 0.79002939  1.50527524  0.1       )
	( 0.60414012  1.15109283  0.1       )
	( 0.51119549  0.97400163  0.1       )
	( 0.46472317  0.88545603  0.1       )
	( 1.06893165  1.69038017  0.        )
	( 1.01548507  1.60586116  0.        )
	( 0.9085919   1.43682315  0.        )
	( 0.69480557  1.09874711  0.        )
	( 0.58791241  0.92970909  0.        )
	( 0.53446583  0.84519009  0.        )
	( 1.06893165  1.69038017  0.1       )
	( 1.01548507  1.60586116  0.1       )
	( 0.9085919   1.43682315  0.1       )
	( 0.69480557  1.09874711  0.1       )
	( 0.58791241  0.92970909  0.1       )
	( 0.53446583  0.84519009  0.1       )
	( 1.20148453  1.59888553  0.        )
	( 1.1414103   1.51894125  0.        )
	( 1.02126185  1.3590527   0.        )
	( 0.78096494  1.03927559  0.        )
	( 0.66081649  0.87938704  0.        )
	( 0.60074226  0.79944276  0.        )
	( 1.20148453  1.59888553  0.1       )
	( 1.1414103   1.51894125  0.1       )
	( 1.02126185  1.3590527   0.1       )
	( 0.78096494  1.03927559  0.1       )
	( 0.66081649  0.87938704  0.1       )
	( 0.60074226  0.79944276  0.1       )
	( 1.32624532  1.4970215   0.        )
	( 1.25993305  1.42217042  0.        )
	( 1.12730852  1.27246827  0.        )
	( 0.86205946  0.97306397  0.        )
	( 0.72943492  0.82336182  0.        )
	( 0.66312266  0.74851075  0.        )
	( 1.32624532  1.4970215   0.1       )
	( 1.25993305  1.42217042  0.1       )
	( 1.12730852  1.27246827  0.1       )
	( 0.86205946  0.97306397  0.1       )
	( 0.72943492  0.82336182  0.1       )
	( 0.66312266  0.74851075  0.1       )
	( 1.44240489  1.38544871  0.        )
	( 1.37028465  1.31617627  0.        )
	( 1.22604416  1.1776314   0.        )
	( 0.93756318  0.90054166  0.        )
	( 0.79332269  0.76199679  0.        )
	( 0.72120245  0.69272435  0.        )
	( 1.44240489  1.38544871  0.1       )
	( 1.37028465  1.31617627  0.1       )
	( 1.22604416  1.1776314   0.1       )
	( 0.93756318  0.90054166  0.1       )
	( 0.79332269  0.76199679  0.1       )
	( 0.72120245  0.69272435  0.1       )
	( 1.54920992  1.26489075  0.        )
	( 1.47174943  1.20164621  0.        )
	( 1.31682844  1.07515714  0.        )
	( 1.00698645  0.82217899  0.        )
	( 0.85206546  0.69568991  0.        )
	( 0.77460496  0.63244538  0.        )
	( 1.54920992  1.26489075  0.1       )
	( 1.47174943  1.20164621  0.1       )
	( 1.31682844  1.07515714  0.1       )
	( 1.00698645  0.82217899  0.1       )
	( 0.85206546  0.69568991  0.1       )
	( 0.77460496  0.63244538  0.1       )
	( 1.64596773  1.13612949  0.        )
	( 1.56366935  1.07932302  0.        )
	( 1.39907257  0.96571007  0.        )
	( 1.06987903  0.73848417  0.        )
	( 0.90528225  0.62487122  0.        )
	( 0.82298387  0.56806475  0.        )
	( 1.64596773  1.13612949  0.1       )
	( 1.56366935  1.07932302  0.1       )
	( 1.39907257  0.96571007  0.1       )
	( 1.06987903  0.73848417  0.1       )
	( 0.90528225  0.62487122  0.1       )
	( 0.82298387  0.56806475  0.1       )
	( 1.73205081  1.          0.        )
	( 1.64544827  0.95        0.        )
	( 1.47224319  0.85        0.        )
	( 1.12583302  0.65        0.        )
	( 0.95262794  0.55        0.        )
	( 0.8660254  0.5        0.       )
	( 1.73205081  1.          0.1       )
	( 1.64544827  0.95        0.1       )
	( 1.47224319  0.85        0.1       )
	( 1.12583302  0.65        0.1       )
	( 0.95262794  0.55        0.1       )
	( 0.8660254  0.5        0.1      )
	( 1.80690087  0.85738512  0.        )
	( 1.71655583  0.81451587  0.        )
	( 1.53586574  0.72877735  0.        )
	( 1.17448556  0.55730033  0.        )
	( 0.99379548  0.47156182  0.        )
	( 0.90345043  0.42869256  0.        )
	( 1.80690087  0.85738512  0.1       )
	( 1.71655583  0.81451587  0.1       )
	( 1.53586574  0.72877735  0.1       )
	( 1.17448556  0.55730033  0.1       )
	( 0.99379548  0.47156182  0.1       )
	( 0.90345043  0.42869256  0.1       )
	( 1.87003249  0.70920977  0.        )
	( 1.77653086  0.67374929  0.        )
	( 1.58952761  0.60282831  0.        )
	( 1.21552112  0.46098635  0.        )
	( 1.02851787  0.39006538  0.        )
	( 0.93501624  0.35460489  0.        )
	( 1.87003249  0.70920977  0.1       )
	( 1.77653086  0.67374929  0.1       )
	( 1.58952761  0.60282831  0.1       )
	( 1.21552112  0.46098635  0.1       )
	( 1.02851787  0.39006538  0.1       )
	( 0.93501624  0.35460489  0.1       )
	( 1.92103622  0.55643493  0.        )
	( 1.82498441  0.52861318  0.        )
	( 1.63288079  0.47296969  0.        )
	( 1.24867355  0.3616827   0.        )
	( 1.05656992  0.30603921  0.        )
	( 0.96051811  0.27821746  0.        )
	( 1.92103622  0.55643493  0.1       )
	( 1.82498441  0.52861318  0.1       )
	( 1.63288079  0.47296969  0.1       )
	( 1.24867355  0.3616827   0.1       )
	( 1.05656992  0.30603921  0.1       )
	( 0.96051811  0.27821746  0.1       )
	( 1.9595813   0.40005139  0.        )
	( 1.86160224  0.38004882  0.        )
	( 1.66564411  0.34004368  0.        )
	( 1.27372785  0.2600334   0.        )
	( 1.07776972  0.22002826  0.        )
	( 0.97979065  0.20002569  0.        )
	( 1.9595813   0.40005139  0.1       )
	( 1.86160224  0.38004882  0.1       )
	( 1.66564411  0.34004368  0.1       )
	( 1.27372785  0.2600334   0.1       )
	( 1.07776972  0.22002826  0.1       )
	( 0.97979065  0.20002569  0.1       )
	( 1.98541775  0.24107336  0.        )
	( 1.88614686  0.22901969  0.        )
	( 1.68760509  0.20491236  0.        )
	( 1.29052154  0.15669768  0.        )
	( 1.09197976  0.13259035  0.        )
	( 0.99270887  0.12053668  0.        )
	( 1.98541775  0.24107336  0.1       )
	( 1.88614686  0.22901969  0.1       )
	( 1.68760509  0.20491236  0.1       )
	( 1.29052154  0.15669768  0.1       )
	( 1.09197976  0.13259035  0.1       )
	( 0.99270887  0.12053668  0.1       )
	( 1.998378    0.08053188  0.        )
	( 1.8984591   0.07650529  0.        )
	( 1.6986213  0.0684521  0.       )
	( 1.2989457   0.05234572  0.        )
	( 1.0991079   0.04429253  0.        )
	( 0.999189    0.04026594  0.        )
	( 1.998378    0.08053188  0.1       )
	( 1.8984591   0.07650529  0.1       )
	( 1.6986213  0.0684521  0.1      )
	( 1.2989457   0.05234572  0.1       )
	( 1.0991079   0.04429253  0.1       )
	( 0.999189    0.04026594  0.1       )
	( 1.998378   -0.08053188  0.        )
	( 1.8984591  -0.07650529  0.        )
	( 1.6986213 -0.0684521  0.       )
	( 1.2989457  -0.05234572  0.        )
	( 1.0991079  -0.04429253  0.        )
	( 0.999189   -0.04026594  0.        )
	( 1.998378   -0.08053188  0.1       )
	( 1.8984591  -0.07650529  0.1       )
	( 1.6986213 -0.0684521  0.1      )
	( 1.2989457  -0.05234572  0.1       )
	( 1.0991079  -0.04429253  0.1       )
	( 0.999189   -0.04026594  0.1       )
	( 1.98541775 -0.24107336  0.        )
	( 1.88614686 -0.22901969  0.        )
	( 1.68760509 -0.20491236  0.        )
	( 1.29052154 -0.15669768  0.        )
	( 1.09197976 -0.13259035  0.        )
	( 0.99270887 -0.12053668  0.        )
	( 1.98541775 -0.24107336  0.1       )
	( 1.88614686 -0.22901969  0.1       )
	( 1.68760509 -0.20491236  0.1       )
	( 1.29052154 -0.15669768  0.1       )
	( 1.09197976 -0.13259035  0.1       )
	( 0.99270887 -0.12053668  0.1       )
	( 1.9595813  -0.40005139  0.        )
	( 1.86160224 -0.38004882  0.        )
	( 1.66564411 -0.34004368  0.        )
	( 1.27372785 -0.2600334   0.        )
	( 1.07776972 -0.22002826  0.        )
	( 0.97979065 -0.20002569  0.        )
	( 1.9595813  -0.40005139  0.1       )
	( 1.86160224 -0.38004882  0.1       )
	( 1.66564411 -0.34004368  0.1       )
	( 1.27372785 -0.2600334   0.1       )
	( 1.07776972 -0.22002826  0.1       )
	( 0.97979065 -0.20002569  0.1       )
	( 1.92103622 -0.55643493  0.        )
	( 1.82498441 -0.52861318  0.        )
	( 1.63288079 -0.47296969  0.        )
	( 1.24867355 -0.3616827   0.        )
	( 1.05656992 -0.30603921  0.        )
	( 0.96051811 -0.27821746  0.        )
	( 1.92103622 -0.55643493  0.1       )
	( 1.82498441 -0.52861318  0.1       )
	( 1.63288079 -0.47296969  0.1       )
	( 1.24867355 -0.3616827   0.1       )
	( 1.05656992 -0.30603921  0.1       )
	( 0.96051811 -0.27821746  0.1       )
	( 1.87003249 -0.70920977  0.        )
	( 1.77653086 -0.67374929  0.        )
	( 1.58952761 -0.60282831  0.        )
	( 1.21552112 -0.46098635  0.        )
	( 1.02851787 -0.39006538  0.        )
	( 0.93501624 -0.35460489  0.        )
	( 1.87003249 -0.70920977  0.1       )
	( 1.77653086 -0.67374929  0.1       )
	( 1.58952761 -0.60282831  0.1       )
	( 1.21552112 -0.46098635  0.1       )
	( 1.02851787 -0.39006538  0.1       )
	( 0.93501624 -0.35460489  0.1       )
	( 1.80690087 -0.85738512  0.        )
	( 1.71655583 -0.81451587  0.        )
	( 1.53586574 -0.72877735  0.        )
	( 1.17448556 -0.55730033  0.        )
	( 0.99379548 -0.47156182  0.        )
	( 0.90345043 -0.42869256  0.        )
	( 1.80690087 -0.85738512  0.1       )
	( 1.71655583 -0.81451587  0.1       )
	( 1.53586574 -0.72877735  0.1       )
	( 1.17448556 -0.55730033  0.1       )
	( 0.99379548 -0.47156182  0.1       )
	( 0.90345043 -0.42869256  0.1       )
	( 1.73205081 -1.          0.        )
	( 1.64544827 -0.95        0.        )
	( 1.47224319 -0.85        0.        )
	( 1.12583302 -0.65        0.        )
	( 0.95262794 -0.55        0.        )
	( 0.8660254 -0.5        0.       )
	( 1.73205081 -1.          0.1       )
	( 1.64544827 -0.95        0.1       )
	( 1.47224319 -0.85        0.1       )
	( 1.12583302 -0.65        0.1       )
	( 0.95262794 -0.55        0.1       )
	( 0.8660254 -0.5        0.1      )
	( 1.64596773 -1.13612949  0.        )
	( 1.56366935 -1.07932302  0.        )
	( 1.39907257 -0.96571007  0.        )
	( 1.06987903 -0.73848417  0.        )
	( 0.90528225 -0.62487122  0.        )
	( 0.82298387 -0.56806475  0.        )
	( 1.64596773 -1.13612949  0.1       )
	( 1.56366935 -1.07932302  0.1       )
	( 1.39907257 -0.96571007  0.1       )
	( 1.06987903 -0.73848417  0.1       )
	( 0.90528225 -0.62487122  0.1       )
	( 0.82298387 -0.56806475  0.1       )
	( 1.54920992 -1.26489075  0.        )
	( 1.47174943 -1.20164621  0.        )
	( 1.31682844 -1.07515714  0.        )
	( 1.00698645 -0.82217899  0.        )
	( 0.85206546 -0.69568991  0.        )
	( 0.77460496 -0.63244538  0.        )
	( 1.54920992 -1.26489075  0.1       )
	( 1.47174943 -1.20164621  0.1       )
	( 1.31682844 -1.07515714  0.1       )
	( 1.00698645 -0.82217899  0.1       )
	( 0.85206546 -0.69568991  0.1       )
	( 0.77460496 -0.63244538  0.1       )
	( 1.44240489 -1.38544871  0.        )
	( 1.37028465 -1.31617627  0.        )
	( 1.22604416 -1.1776314   0.        )
	( 0.93756318 -0.90054166  0.        )
	( 0.79332269 -0.76199679  0.        )
	( 0.72120245 -0.69272435  0.        )
	( 1.44240489 -1.38544871  0.1       )
	( 1.37028465 -1.31617627  0.1       )
	( 1.22604416 -1.1776314   0.1       )
	( 0.93756318 -0.90054166  0.1       )
	( 0.79332269 -0.76199679  0.1       )
	( 0.72120245 -0.69272435  0.1       )
	( 1.32624532 -1.4970215   0.        )
	( 1.25993305 -1.42217042  0.        )
	( 1.12730852 -1.27246827  0.        )
	( 0.86205946 -0.97306397  0.        )
	( 0.72943492 -0.82336182  0.        )
	( 0.66312266 -0.74851075  0.        )
	( 1.32624532 -1.4970215   0.1       )
	( 1.25993305 -1.42217042  0.1       )
	( 1.12730852 -1.27246827  0.1       )
	( 0.86205946 -0.97306397  0.1       )
	( 0.72943492 -0.82336182  0.1       )
	( 0.66312266 -0.74851075  0.1       )
	( 1.20148453 -1.59888553  0.        )
	( 1.1414103  -1.51894125  0.        )
	( 1.02126185 -1.3590527   0.        )
	( 0.78096494 -1.03927559  0.        )
	( 0.66081649 -0.87938704  0.        )
	( 0.60074226 -0.79944276  0.        )
	( 1.20148453 -1.59888553  0.1       )
	( 1.1414103  -1.51894125  0.1       )
	( 1.02126185 -1.3590527   0.1       )
	( 0.78096494 -1.03927559  0.1       )
	( 0.66081649 -0.87938704  0.1       )
	( 0.60074226 -0.79944276  0.1       )
	( 1.06893165 -1.69038017  0.        )
	( 1.01548507 -1.60586116  0.        )
	( 0.9085919  -1.43682315  0.        )
	( 0.69480557 -1.09874711  0.        )
	( 0.58791241 -0.92970909  0.        )
	( 0.53446583 -0.84519009  0.        )
	( 1.06893165 -1.69038017  0.1       )
	( 1.01548507 -1.60586116  0.1       )
	( 0.9085919  -1.43682315  0.1       )
	( 0.69480557 -1.09874711  0.1       )
	( 0.58791241 -0.92970909  0.1       )
	( 0.53446583 -0.84519009  0.1       )
	( 0.92944634 -1.77091205  0.        )
	( 0.88297403 -1.68236645  0.        )
	( 0.79002939 -1.50527524  0.        )
	( 0.60414012 -1.15109283  0.        )
	( 0.51119549 -0.97400163  0.        )
	( 0.46472317 -0.88545603  0.        )
	( 0.92944634 -1.77091205  0.1       )
	( 0.88297403 -1.68236645  0.1       )
	( 0.79002939 -1.50527524  0.1       )
	( 0.60414012 -1.15109283  0.1       )
	( 0.51119549 -0.97400163  0.1       )
	( 0.46472317 -0.88545603  0.1       )
	( 0.78393322 -1.83995889  0.        )
	( 0.74473656 -1.74796094  0.        )
	( 0.66634324 -1.56396505  0.        )
	( 0.50955659 -1.19597328  0.        )
	( 0.43116327 -1.01197739  0.        )
	( 0.39196661 -0.91997944  0.        )
	( 0.78393322 -1.83995889  0.1       )
	( 0.74473656 -1.74796094  0.1       )
	( 0.66634324 -1.56396505  0.1       )
	( 0.50955659 -1.19597328  0.1       )
	( 0.43116327 -1.01197739  0.1       )
	( 0.39196661 -0.91997944  0.1       )
	( 0.63333599 -1.89707288  0.        )
	( 0.60166919 -1.80221924  0.        )
	( 0.53833559 -1.61251195  0.        )
	( 0.41166839 -1.23309737  0.        )
	( 0.34833479 -1.04339009  0.        )
	( 0.31666799 -0.94853644  0.        )
	( 0.63333599 -1.89707288  0.1       )
	( 0.60166919 -1.80221924  0.1       )
	( 0.53833559 -1.61251195  0.1       )
	( 0.41166839 -1.23309737  0.1       )
	( 0.34833479 -1.04339009  0.1       )
	( 0.31666799 -0.94853644  0.1       )
	( 0.47863133 -1.94188363  0.        )
	( 0.45469976 -1.84478945  0.        )
	( 0.40683663 -1.65060109  0.        )
	( 0.31111036 -1.26222436  0.        )
	( 0.26324723 -1.068036    0.        )
	( 0.23931566 -0.97094182  0.        )
	( 0.47863133 -1.94188363  0.1       )
	( 0.45469976 -1.84478945  0.1       )
	( 0.40683663 -1.65060109  0.1       )
	( 0.31111036 -1.26222436  0.1       )
	( 0.26324723 -1.068036    0.1       )
	( 0.23931566 -0.97094182  0.1       )
	( 0.32082256 -1.97410053  0.        )
	( 0.30478143 -1.8753955   0.        )
	( 0.27269918 -1.67798545  0.        )
	( 0.20853467 -1.28316534  0.        )
	( 0.17645241 -1.08575529  0.        )
	( 0.16041128 -0.98705026  0.        )
	( 0.32082256 -1.97410053  0.1       )
	( 0.30478143 -1.8753955   0.1       )
	( 0.27269918 -1.67798545  0.1       )
	( 0.20853467 -1.28316534  0.1       )
	( 0.17645241 -1.08575529  0.1       )
	( 0.16041128 -0.98705026  0.1       )
	( 0.16093314 -1.99351462  0.        )
	( 0.15288648 -1.89383889  0.        )
	( 0.13679317 -1.69448742  0.        )
	( 0.10460654 -1.2957845   0.        )
	( 0.08851323 -1.09643304  0.        )
	( 0.08046657 -0.99675731  0.        )
	( 0.16093314 -1.99351462  0.1       )
	( 0.15288648 -1.89383889  0.1       )
	( 0.13679317 -1.69448742  0.1       )
	( 0.10460654 -1.2957845   0.1       )
	( 0.08851323 -1.09643304  0.1       )
	( 0.08046657 -0.99675731  0.1       )
	(  1.22464680e-16  -2.00000000e+00   0.00000000e+00)
	(  1.16341446e-16  -1.90000000e+00   0.00000000e+00)
	(  1.04094978e-16  -1.70000000e+00   0.00000000e+00)
	(  7.96020419e-17  -1.30000000e+00   0.00000000e+00)
	(  6.73555740e-17  -1.10000000e+00   0.00000000e+00)
	(  6.12323400e-17  -1.00000000e+00   0.00000000e+00)
	(  1.22464680e-16  -2.00000000e+00   1.00000000e-01)
	(  1.16341446e-16  -1.90000000e+00   1.00000000e-01)
	(  1.04094978e-16  -1.70000000e+00   1.00000000e-01)
	(  7.96020419e-17  -1.30000000e+00   1.00000000e-01)
	(  6.73555740e-17  -1.10000000e+00   1.00000000e-01)
	(  6.12323400e-17  -1.00000000e+00   1.00000000e-01)
	(-0.1 -2.   0. )
	(-0.1 -1.9  0. )
	(-0.1 -1.7  0. )
	(-0.1 -1.3  0. )
	(-0.1 -1.1  0. )
	(-0.1 -1.   0. )
	(-0.1 -2.   0.1)
	(-0.1 -1.9  0.1)
	(-0.1 -1.7  0.1)
	(-0.1 -1.3  0.1)
	(-0.1 -1.1  0.1)
	(-0.1 -1.   0.1)
	(-0.2 -2.   0. )
	(-0.2 -1.9  0. )
	(-0.2 -1.7  0. )
	(-0.2 -1.3  0. )
	(-0.2 -1.1  0. )
	(-0.2 -1.   0. )
	(-0.2 -2.   0.1)
	(-0.2 -1.9  0.1)
	(-0.2 -1.7  0.1)
	(-0.2 -1.3  0.1)
	(-0.2 -1.1  0.1)
	(-0.2 -1.   0.1)
	(-0.3 -2.   0. )
	(-0.3 -1.9  0. )
	(-0.3 -1.7  0. )
	(-0.3 -1.3  0. )
	(-0.3 -1.1  0. )
	(-0.3 -1.   0. )
	(-0.3 -2.   0.1)
	(-0.3 -1.9  0.1)
	(-0.3 -1.7  0.1)
	(-0.3 -1.3  0.1)
	(-0.3 -1.1  0.1)
	(-0.3 -1.   0.1)
	(-0.4 -2.   0. )
	(-0.4 -1.9  0. )
	(-0.4 -1.7  0. )
	(-0.4 -1.3  0. )
	(-0.4 -1.1  0. )
	(-0.4 -1.   0. )
	(-0.4 -2.   0.1)
	(-0.4 -1.9  0.1)
	(-0.4 -1.7  0.1)
	(-0.4 -1.3  0.1)
	(-0.4 -1.1  0.1)
	(-0.4 -1.   0.1)
	(-0.5 -2.   0. )
	(-0.5 -1.9  0. )
	(-0.5 -1.7  0. )
	(-0.5 -1.3  0. )
	(-0.5 -1.1  0. )
	(-0.5 -1.   0. )
	(-0.5 -2.   0.1)
	(-0.5 -1.9  0.1)
	(-0.5 -1.7  0.1)
	(-0.5 -1.3  0.1)
	(-0.5 -1.1  0.1)
	(-0.5 -1.   0.1)
	(-0.6 -2.   0. )
	(-0.6 -1.9  0. )
	(-0.6 -1.7  0. )
	(-0.6 -1.3  0. )
	(-0.6 -1.1  0. )
	(-0.6 -1.   0. )
	(-0.6 -2.   0.1)
	(-0.6 -1.9  0.1)
	(-0.6 -1.7  0.1)
	(-0.6 -1.3  0.1)
	(-0.6 -1.1  0.1)
	(-0.6 -1.   0.1)
	(-0.7 -2.   0. )
	(-0.7 -1.9  0. )
	(-0.7 -1.7  0. )
	(-0.7 -1.3  0. )
	(-0.7 -1.1  0. )
	(-0.7 -1.   0. )
	(-0.7 -2.   0.1)
	(-0.7 -1.9  0.1)
	(-0.7 -1.7  0.1)
	(-0.7 -1.3  0.1)
	(-0.7 -1.1  0.1)
	(-0.7 -1.   0.1)
	(-0.8 -2.   0. )
	(-0.8 -1.9  0. )
	(-0.8 -1.7  0. )
	(-0.8 -1.3  0. )
	(-0.8 -1.1  0. )
	(-0.8 -1.   0. )
	(-0.8 -2.   0.1)
	(-0.8 -1.9  0.1)
	(-0.8 -1.7  0.1)
	(-0.8 -1.3  0.1)
	(-0.8 -1.1  0.1)
	(-0.8 -1.   0.1)
	(-0.9 -2.   0. )
	(-0.9 -1.9  0. )
	(-0.9 -1.7  0. )
	(-0.9 -1.3  0. )
	(-0.9 -1.1  0. )
	(-0.9 -1.   0. )
	(-0.9 -2.   0.1)
	(-0.9 -1.9  0.1)
	(-0.9 -1.7  0.1)
	(-0.9 -1.3  0.1)
	(-0.9 -1.1  0.1)
	(-0.9 -1.   0.1)
	(-1. -2.  0.)
	(-1.  -1.9  0. )
	(-1.  -1.7  0. )
	(-1.  -1.3  0. )
	(-1.  -1.1  0. )
	(-1. -1.  0.)
	(-1.  -2.   0.1)
	(-1.  -1.9  0.1)
	(-1.  -1.7  0.1)
	(-1.  -1.3  0.1)
	(-1.  -1.1  0.1)
	(-1.  -1.   0.1)
	
 );
 
 blocks
 (
        hex ( 0  1 13 12  6  7 19 18)
	(5 1 1)
	simpleGrading (1 1 1)

	hex ( 1  2 14 13  7  8 20 19)
	(3 1 1)
	simpleGrading (1 1 1)

	hex ( 2  3 15 14  8  9 21 20)
	(3 1 1)
	simpleGrading (1 1 1)

	hex ( 3  4 16 15  9 10 22 21)
	(3 1 1)
	simpleGrading (1 1 1)

	hex ( 4  5 17 16 10 11 23 22)
	(5 1 1)
	simpleGrading (1 1 1)

	hex (12 13 25 24 18 19 31 30)
	(5 1 1)
	simpleGrading (1 1 1)

	hex (13 14 26 25 19 20 32 31)
	(3 1 1)
	simpleGrading (1 1 1)

	hex (14 15 27 26 20 21 33 32)
	(3 1 1)
	simpleGrading (1 1 1)

	hex (15 16 28 27 21 22 34 33)
	(3 1 1)
	simpleGrading (1 1 1)

	hex (16 17 29 28 22 23 35 34)
	(5 1 1)
	simpleGrading (1 1 1)

	hex (24 25 37 36 30 31 43 42)
	(5 1 1)
	simpleGrading (1 1 1)

	hex (25 26 38 37 31 32 44 43)
	(3 1 1)
	simpleGrading (1 1 1)

	hex (26 27 39 38 32 33 45 44)
	(3 1 1)
	simpleGrading (1 1 1)

	hex (27 28 40 39 33 34 46 45)
	(3 1 1)
	simpleGrading (1 1 1)

	hex (28 29 41 40 34 35 47 46)
	(5 1 1)
	simpleGrading (1 1 1)

	hex (36 37 49 48 42 43 55 54)
	(5 1 1)
	simpleGrading (1 1 1)

	hex (37 38 50 49 43 44 56 55)
	(3 1 1)
	simpleGrading (1 1 1)

	hex (38 39 51 50 44 45 57 56)
	(3 1 1)
	simpleGrading (1 1 1)

	hex (39 40 52 51 45 46 58 57)
	(3 1 1)
	simpleGrading (1 1 1)

	hex (40 41 53 52 46 47 59 58)
	(5 1 1)
	simpleGrading (1 1 1)

	hex (48 49 61 60 54 55 67 66)
	(5 1 1)
	simpleGrading (1 1 1)

	hex (49 50 62 61 55 56 68 67)
	(3 1 1)
	simpleGrading (1 1 1)

	hex (50 51 63 62 56 57 69 68)
	(3 1 1)
	simpleGrading (1 1 1)

	hex (51 52 64 63 57 58 70 69)
	(3 1 1)
	simpleGrading (1 1 1)

	hex (52 53 65 64 58 59 71 70)
	(5 1 1)
	simpleGrading (1 1 1)

	hex (60 61 73 72 66 67 79 78)
	(5 1 1)
	simpleGrading (1 1 1)

	hex (61 62 74 73 67 68 80 79)
	(3 1 1)
	simpleGrading (1 1 1)

	hex (62 63 75 74 68 69 81 80)
	(3 1 1)
	simpleGrading (1 1 1)

	hex (63 64 76 75 69 70 82 81)
	(3 1 1)
	simpleGrading (1 1 1)

	hex (64 65 77 76 70 71 83 82)
	(5 1 1)
	simpleGrading (1 1 1)

	hex (72 73 85 84 78 79 91 90)
	(5 1 1)
	simpleGrading (1 1 1)

	hex (73 74 86 85 79 80 92 91)
	(3 1 1)
	simpleGrading (1 1 1)

	hex (74 75 87 86 80 81 93 92)
	(3 1 1)
	simpleGrading (1 1 1)

	hex (75 76 88 87 81 82 94 93)
	(3 1 1)
	simpleGrading (1 1 1)

	hex (76 77 89 88 82 83 95 94)
	(5 1 1)
	simpleGrading (1 1 1)

	hex ( 84  85  97  96  90  91 103 102)
	(5 1 1)
	simpleGrading (1 1 1)

	hex ( 85  86  98  97  91  92 104 103)
	(3 1 1)
	simpleGrading (1 1 1)

	hex ( 86  87  99  98  92  93 105 104)
	(3 1 1)
	simpleGrading (1 1 1)

	hex ( 87  88 100  99  93  94 106 105)
	(3 1 1)
	simpleGrading (1 1 1)

	hex ( 88  89 101 100  94  95 107 106)
	(5 1 1)
	simpleGrading (1 1 1)

	hex ( 96  97 109 108 102 103 115 114)
	(5 1 1)
	simpleGrading (1 1 1)

	hex ( 97  98 110 109 103 104 116 115)
	(3 1 1)
	simpleGrading (1 1 1)

	hex ( 98  99 111 110 104 105 117 116)
	(3 1 1)
	simpleGrading (1 1 1)

	hex ( 99 100 112 111 105 106 118 117)
	(3 1 1)
	simpleGrading (1 1 1)

	hex (100 101 113 112 106 107 119 118)
	(5 1 1)
	simpleGrading (1 1 1)

	hex (108 109 121 120 114 115 127 126)
	(5 1 1)
	simpleGrading (1 1 1)

	hex (109 110 122 121 115 116 128 127)
	(3 1 1)
	simpleGrading (1 1 1)

	hex (110 111 123 122 116 117 129 128)
	(3 1 1)
	simpleGrading (1 1 1)

	hex (111 112 124 123 117 118 130 129)
	(3 1 1)
	simpleGrading (1 1 1)

	hex (112 113 125 124 118 119 131 130)
	(5 1 1)
	simpleGrading (1 1 1)

	hex (120 121 133 132 126 127 139 138)
	(5 1 1)
	simpleGrading (1 1 1)

	hex (121 122 134 133 127 128 140 139)
	(3 1 1)
	simpleGrading (1 1 1)

	hex (122 123 135 134 128 129 141 140)
	(3 1 1)
	simpleGrading (1 1 1)

	hex (123 124 136 135 129 130 142 141)
	(3 1 1)
	simpleGrading (1 1 1)

	hex (124 125 137 136 130 131 143 142)
	(5 1 1)
	simpleGrading (1 1 1)

	hex (132 133 145 144 138 139 151 150)
	(5 1 1)
	simpleGrading (1 1 1)

	hex (133 134 146 145 139 140 152 151)
	(3 1 1)
	simpleGrading (1 1 1)

	hex (134 135 147 146 140 141 153 152)
	(3 1 1)
	simpleGrading (1 1 1)

	hex (135 136 148 147 141 142 154 153)
	(3 1 1)
	simpleGrading (1 1 1)

	hex (136 137 149 148 142 143 155 154)
	(5 1 1)
	simpleGrading (1 1 1)

	hex (144 145 157 156 150 151 163 162)
	(5 1 1)
	simpleGrading (1 1 1)

	hex (145 146 158 157 151 152 164 163)
	(3 1 1)
	simpleGrading (1 1 1)

	hex (146 147 159 158 152 153 165 164)
	(3 1 1)
	simpleGrading (1 1 1)

	hex (147 148 160 159 153 154 166 165)
	(3 1 1)
	simpleGrading (1 1 1)

	hex (148 149 161 160 154 155 167 166)
	(5 1 1)
	simpleGrading (1 1 1)

	hex (156 157 169 168 162 163 175 174)
	(5 1 1)
	simpleGrading (1 1 1)

	hex (157 158 170 169 163 164 176 175)
	(3 1 1)
	simpleGrading (1 1 1)

	hex (158 159 171 170 164 165 177 176)
	(3 1 1)
	simpleGrading (1 1 1)

	hex (159 160 172 171 165 166 178 177)
	(3 1 1)
	simpleGrading (1 1 1)

	hex (160 161 173 172 166 167 179 178)
	(5 1 1)
	simpleGrading (1 1 1)

	hex (168 169 181 180 174 175 187 186)
	(5 1 1)
	simpleGrading (1 1 1)

	hex (169 170 182 181 175 176 188 187)
	(3 1 1)
	simpleGrading (1 1 1)

	hex (170 171 183 182 176 177 189 188)
	(3 1 1)
	simpleGrading (1 1 1)

	hex (171 172 184 183 177 178 190 189)
	(3 1 1)
	simpleGrading (1 1 1)

	hex (172 173 185 184 178 179 191 190)
	(5 1 1)
	simpleGrading (1 1 1)

	hex (180 181 193 192 186 187 199 198)
	(5 1 1)
	simpleGrading (1 1 1)

	hex (181 182 194 193 187 188 200 199)
	(3 1 1)
	simpleGrading (1 1 1)

	hex (182 183 195 194 188 189 201 200)
	(3 1 1)
	simpleGrading (1 1 1)

	hex (183 184 196 195 189 190 202 201)
	(3 1 1)
	simpleGrading (1 1 1)

	hex (184 185 197 196 190 191 203 202)
	(5 1 1)
	simpleGrading (1 1 1)

	hex (192 193 205 204 198 199 211 210)
	(5 1 1)
	simpleGrading (1 1 1)

	hex (193 194 206 205 199 200 212 211)
	(3 1 1)
	simpleGrading (1 1 1)

	hex (194 195 207 206 200 201 213 212)
	(3 1 1)
	simpleGrading (1 1 1)

	hex (195 196 208 207 201 202 214 213)
	(3 1 1)
	simpleGrading (1 1 1)

	hex (196 197 209 208 202 203 215 214)
	(5 1 1)
	simpleGrading (1 1 1)

	hex (204 205 217 216 210 211 223 222)
	(5 1 1)
	simpleGrading (1 1 1)

	hex (205 206 218 217 211 212 224 223)
	(3 1 1)
	simpleGrading (1 1 1)

	hex (206 207 219 218 212 213 225 224)
	(3 1 1)
	simpleGrading (1 1 1)

	hex (207 208 220 219 213 214 226 225)
	(3 1 1)
	simpleGrading (1 1 1)

	hex (208 209 221 220 214 215 227 226)
	(5 1 1)
	simpleGrading (1 1 1)

	hex (216 217 229 228 222 223 235 234)
	(5 1 1)
	simpleGrading (1 1 1)

	hex (217 218 230 229 223 224 236 235)
	(3 1 1)
	simpleGrading (1 1 1)

	hex (218 219 231 230 224 225 237 236)
	(3 1 1)
	simpleGrading (1 1 1)

	hex (219 220 232 231 225 226 238 237)
	(3 1 1)
	simpleGrading (1 1 1)

	hex (220 221 233 232 226 227 239 238)
	(5 1 1)
	simpleGrading (1 1 1)

	hex (228 229 241 240 234 235 247 246)
	(5 1 1)
	simpleGrading (1 1 1)

	hex (229 230 242 241 235 236 248 247)
	(3 1 1)
	simpleGrading (1 1 1)

	hex (230 231 243 242 236 237 249 248)
	(3 1 1)
	simpleGrading (1 1 1)

	hex (231 232 244 243 237 238 250 249)
	(3 1 1)
	simpleGrading (1 1 1)
